Circuit: * C:\Users\Shype\Desktop\Paper in work\[In Work] MASAM\Structures\Semi-Parallel\1bit_adder_cin.asc

Fatal Error: Could not open file "s0.csv" in PWL

