Circuit: * C:\Users\Shype\Desktop\Paper in work\[In Work] MASAM\Structures\Semi-Parallel\1bit_adder_cin.asc

v1: Removing PWL point (1e-09,0)
v1: Removing PWL point (0.00018,0)
v3: Removing PWL point (1e-09,0)
v3: Removing PWL point (0.00015,0)
v2: Removing PWL point (1e-09,-100)
v2: Removing PWL point (0.00018,-100)
v4: Removing PWL point (1e-09,-100)
v4: Removing PWL point (9e-05,100)
v4: Removing PWL point (0.00015,-100)
v11: Removing PWL point (1e-09,-100)
v11: Removing PWL point (6e-05,100)
v13: Removing PWL point (3e-05,100)
v12: Removing PWL point (1e-09,-100)
v12: Removing PWL point (0.00012,100)
v7: Removing PWL point (1e-09,0)
v7: Removing PWL point (0.00015,0)
v8: Removing PWL point (1e-09,-100)
v8: Removing PWL point (6e-05,100)
v8: Removing PWL point (0.00015,-100)
v9: Removing PWL point (1e-09,0)
v10: Removing PWL point (1e-09,-100)
v10: Removing PWL point (6e-05,100)
v10: Removing PWL point (0.00015,100)
v5: Removing PWL point (6e-05,0)
v6: Removing PWL point (6e-05,-100)
WARNING: Less than two connections to node a.  This node is used by e:xa:1.
WARNING: Less than two connections to node b.  This node is used by e:xb:1.
WARNING: Less than two connections to node w1.  This node is used by e:xw1:1.
WARNING: Less than two connections to node w2.  This node is used by e:xw2:1.
WARNING: Less than two connections to node c.  This node is used by e:xc:1.
Direct Newton iteration for .op point succeeded.

sum: AVG(-v(n001)*i(v1) -v(n009)*i(v3) -v(n008)*i(v5) -v(n002)*i(v7) -v(n007)*i(v9))=1.5161e-06 FROM 0 TO 0.0006


Date: Mon Aug  5 19:56:34 2024
Total elapsed time: 0.086 seconds.

tnom = 27
temp = 27
method = modified trap
totiter = 2405
traniter = 2402
tranpoints = 1176
accept = 1169
rejected = 7
matrix size = 85
fillins = 15
solver = Normal
Avg thread counts: 2.2/3.5/3.5/2.2
Matrix Compiler1:     192 opcodes  0.4/[0.2]/0.2
Matrix Compiler2: 5.22 KB object code size  0.2/0.3/[0.2]

