Circuit: * C:\Users\Shype\Desktop\Paper in work\[In Work] MASAM\Structures\Semi-Parallel\1bit_adder_cin.asc

v1: Removing PWL point (1e-09,0)
v1: Removing PWL point (0.00018,0)
v3: Removing PWL point (1e-09,0)
v3: Removing PWL point (0.00015,0)
v2: Removing PWL point (1e-09,-100)
v2: Removing PWL point (0.00018,-100)
v4: Removing PWL point (1e-09,-100)
v4: Removing PWL point (9e-05,100)
v4: Removing PWL point (0.00015,-100)
v11: Removing PWL point (1e-09,-100)
v11: Removing PWL point (0.00018,-100)
v13: Removing PWL point (6e-05,-100)
v12: Removing PWL point (1e-09,-100)
v12: Removing PWL point (9e-05,100)
v12: Removing PWL point (0.00015,-100)
v7: Removing PWL point (1e-09,0)
v7: Removing PWL point (0.00015,0)
v8: Removing PWL point (1e-09,-100)
v8: Removing PWL point (6e-05,100)
v8: Removing PWL point (0.00015,-100)
v9: Removing PWL point (1e-09,0)
v10: Removing PWL point (1e-09,-100)
v10: Removing PWL point (6e-05,100)
v10: Removing PWL point (0.00015,100)
v5: Removing PWL point (6e-05,0)
v6: Removing PWL point (6e-05,-100)
WARNING: Less than two connections to node a.  This node is used by e:x8:1.
WARNING: Less than two connections to node b.  This node is used by e:x1:1.
WARNING: Less than two connections to node w1.  This node is used by e:x2:1.
WARNING: Less than two connections to node w2.  This node is used by e:x3:1.
WARNING: Less than two connections to node c.  This node is used by e:x4:1.
Direct Newton iteration for .op point succeeded.

sum: AVG(-v(n001)*i(v1) -v(n009)*i(v3) -v(n008)*i(v5) -v(n002)*i(v7) -v(n007)*i(v9))=6.02157e-07 FROM 0 TO 0.0006


Date: Sun Aug  4 10:49:30 2024
Total elapsed time: 0.135 seconds.

tnom = 27
temp = 27
method = modified trap
totiter = 2462
traniter = 2459
tranpoints = 1184
accept = 1173
rejected = 11
matrix size = 85
fillins = 15
solver = Normal
Avg thread counts: 2.2/3.5/3.5/2.2
Matrix Compiler1: 3.07 KB object code size  0.5/0.3/[0.2]
Matrix Compiler2: 5.22 KB object code size  0.4/0.4/[0.2]

