Circuit: * C:\Users\Shype\Desktop\Paper in work\[In Work] MASAM\Structures\Serial\1bit_adder_cin.asc

v1: Removing PWL point (1e-09,0)
v3: Removing PWL point (1e-09,0)
v3: Removing PWL point (0.00015,0)
v2: Removing PWL point (1e-09,-100)
v2: Removing PWL point (6e-05,100)
v4: Removing PWL point (1e-09,-100)
v4: Removing PWL point (0.00015,-100)
v7: Removing PWL point (9e-05,0)
v7: Removing PWL point (0.00018,0)
v8: Removing PWL point (3e-05,100)
v8: Removing PWL point (9e-05,-100)
v8: Removing PWL point (0.00018,-100)
v5: Removing PWL point (1e-09,0)
v6: Removing PWL point (1e-09,-100)
v6: Removing PWL point (0.00015,100)
WARNING: Less than two connections to node b.  This node is used by e:x1:1.
WARNING: Less than two connections to node w1.  This node is used by e:x2:1.
WARNING: Less than two connections to node a.  This node is used by e:x4:1.
WARNING: Less than two connections to node w2.  This node is used by e:x3:1.
WARNING: Less than two connections to node c.  This node is used by e:x5:1.
WARNING: Less than two connections to node w3.  This node is used by e:x6:1.
Direct Newton iteration for .op point succeeded.

sum: AVG(-v(n001)*i(v1) -v(n002)*i(v3) -v(n003)*i(v5) -v(n004)*i(v7) -v(n005)*i(v9) -v(n006)*i(v11))=1.51125e-06 FROM 0 TO 0.0006
w2: AVG(-v(n005)*i(v9))=0 FROM 0 TO 0.0006
w3: AVG(-v(n006)*i(v11))=0 FROM 0 TO 0.0006


Date: Sun Aug  4 15:02:13 2024
Total elapsed time: 0.078 seconds.

tnom = 27
temp = 27
method = modified trap
totiter = 2623
traniter = 2620
tranpoints = 1262
accept = 1238
rejected = 24
matrix size = 91
fillins = 18
solver = Normal
Avg thread counts: 2.1/3.3/3.3/2.1
Matrix Compiler1:     210 opcodes  0.5/[0.3]/0.4
Matrix Compiler2: 5.74 KB object code size  0.2/0.3/[0.2]

